Version 4
SHEET 1 880 680
WIRE -64 32 -176 32
WIRE 128 32 16 32
WIRE 288 32 224 32
WIRE 400 32 288 32
WIRE 528 32 480 32
WIRE 288 80 288 32
WIRE -176 96 -176 32
WIRE 128 112 128 32
WIRE 224 112 224 32
WIRE -176 224 -176 176
WIRE -16 224 -176 224
WIRE 128 224 128 144
WIRE 128 224 -16 224
WIRE 224 224 224 144
WIRE 288 224 288 160
WIRE 288 224 224 224
WIRE 400 224 288 224
WIRE 528 224 528 32
WIRE 528 224 400 224
WIRE -16 256 -16 224
WIRE 400 256 400 224
FLAG -16 256 0
FLAG 400 256 0
FLAG -176 32 S
FLAG 128 32 in
FLAG 288 32 out
SYMBOL ltline 176 128 R0
SYMATTR InstName O1
SYMATTR Value TL1
SYMBOL voltage -176 80 R0
WINDOW 3 14 105 Left 2
WINDOW 123 0 0 Left 0
WINDOW 39 0 0 Left 0
SYMATTR InstName Vs
SYMATTR Value SINE(0 1 1G)
SYMBOL res 32 16 R90
WINDOW 0 0 56 VBottom 2
WINDOW 3 32 56 VTop 2
SYMATTR InstName RS
SYMATTR Value 50
SYMBOL res 272 64 R0
SYMATTR InstName R
SYMATTR Value 1.2987012987
SYMBOL res 496 16 R90
WINDOW 0 0 56 VBottom 2
WINDOW 3 32 56 VTop 2
SYMATTR InstName RL
SYMATTR Value 50
TEXT -184 312 Left 2 !.model TL1 LTRA (L=322n C=129p R=1.35 Len=1)
TEXT -184 288 Left 2 !.tran 0 10n 0 0.001n
